Circuit: * C:\Users\alaso\OneDrive\Desktop\classification-challenge\classification-challenge\Main project\challenge#3\RLC.asc

.OP point found by inspection.

Date: Fri Jun 13 18:05:54 2025
Total elapsed time: 0.063 seconds.

tnom = 27
temp = 27
method = modified trap
totiter = 2270
traniter = 2270
tranpoints = 1136
accept = 1118
rejected = 18
matrix size = 4
fillins = 0
solver = Normal
Avg thread counts: 1.6/2.2/2.2/1.6
Matrix Compiler1:       6 opcodes  0.1/[0.1]/0.1
Matrix Compiler2: off  [0.1]/0.1/0.1

