Circuit: * 4x4 Resistive Crossbar for Matrix-Vector Multiplication

Direct Newton iteration for .op point succeeded.

Date: Fri Jun 13 17:53:48 2025
Total elapsed time: 0.035 seconds.

tnom = 27
temp = 27
method = trap
totiter = 3
traniter = 0
tranpoints = 0
accept = 0
rejected = 0
matrix size = 16
fillins = 0
solver = Normal
Avg thread counts: 16.0/0.0/16.0/16.0
Matrix Compiler1: 952 bytes object code size
Matrix Compiler2: 1.16 KB object code size
